LTspice 24.1.8 for Windows
Circuit: C:\IIT_KGP_IC_Design\Assignment1\Spice_1\inverter.net
Start Time: Sun May 25 23:33:52 2025
Options: ALLOW_AMBIGUOUS_MODELS
solver = Normal
Maximum thread count: 12
tnom = 27
temp = 27
method = modified trap
.step 
Total elapsed time: 0.103 seconds.

Files loaded:
C:\IIT_KGP_IC_Design\Assignment1\Spice_1\inverter.net
C:\Users\srija\AppData\Local\LTspice\lib\cmp\standard.mos
C:\Users\srija\AppData\Local\LTspice\lib\cmp\65nm_bulk.mos

