LTspice 24.1.8 for Windows
Circuit: C:\IIT_KGP_IC_Design\3T_4T_Pixel_Cell\3T_Pixel.net
Start Time: Fri May 30 05:02:52 2025
solver = Normal
Maximum thread count: 12
tnom = 27
temp = 27
method = modified trap
Direct Newton iteration for .op point succeeded.
Total elapsed time: 0.364 seconds.

Files loaded:
C:\IIT_KGP_IC_Design\3T_4T_Pixel_Cell\3T_Pixel.net
C:\Users\srija\AppData\Local\LTspice\lib\cmp\standard.mos
C:\Users\srija\AppData\Local\LTspice\lib\cmp\65nm_bulk.mos

